Version 4.1
SHEET 1 880 680
WIRE 112 -144 16 -144
WIRE 400 -144 368 -144
WIRE -48 96 -112 96
WIRE -32 96 -48 96
WIRE 16 96 16 -144
WIRE 64 96 16 96
WIRE 400 96 400 -144
WIRE 400 96 64 96
WIRE 448 96 400 96
WIRE 560 96 448 96
WIRE 64 192 64 96
WIRE 448 192 448 96
WIRE 64 288 64 256
WIRE 448 288 448 256
WIRE 448 288 64 288
WIRE 560 288 448 288
WIRE 64 320 64 288
WIRE 240 320 240 -32
FLAG 64 320 0
FLAG 240 320 0
SYMBOL diode -48 112 R270
WINDOW 0 32 32 VTop 2
WINDOW 3 0 32 VBottom 2
SYMATTR InstName D1
SYMATTR Value 1N5819
SYMATTR Description Diode
SYMATTR Type diode
SYMBOL cap 48 192 R0
SYMATTR InstName C1
SYMATTR Value 470µ
SYMBOL cap 432 192 R0
SYMATTR InstName C2
SYMATTR Value 470µ
SYMBOL PowerProducts\\LT3080 240 -144 R0
SYMATTR InstName U1
